LAMMPS (5 Oct 2015-ICMS)
units           lj
atom_style full
dimension  3
neighbor        0.5 bin
neigh_modify    every 1 delay 3 check yes
boundary p p p

read_data       test.dat
  orthogonal box = (-15 -15 -15) to (15 15 15)
  reading atoms ...
  10 atoms
  scanning bonds ...
  reading bonds ...
  9 bonds

group fixed type 1
1 atoms in group fixed
group dep type 2
8 atoms in group dep
group moving type 3
1 atoms in group moving

velocity fixed set 0.0 0.0 0.0 sum no units box
velocity dep create 1.0 482748 dist uniform
velocity moving set 0.0 0.0 0.0 sum no units box

pair_style      lj/cut 2.5
pair_modify     shift yes
pair_coeff      * * 0.34 2.5

bond_style	fene
bond_coeff	1 30.0 1.5 1.0 1.0

fix 1 fixed setforce 0.0 0.0 0.0
#fix 2 moving setforce 0.0 0.0 10.0
fix 2 moving aveforce 0.0 0.0 10.0
fix 3 dep langevin 1.0 1.0 1.0 12345
fix 4 all nve

timestep        0.005
thermo          50
thermo_style    one

# dump 1 moving custom 1 my.forces tag fx fy fz
dump 2 all atom  1 test.atom
dump_modify 2 image yes scale yes flush yes

run 5000
  1 neighbor list requests
  update every 1 steps, delay 3 steps, check yes
Step Temp E_pair E_mol TotEng Press
0   0.77777778            0     18.75402     19.80402 -0.0030740741
Averages over the last 51 of 101 rows, steps 2500 to 5000:
Temp E_pair E_mol TotEng Press
0.998643 0 18.7757 20.1238 -0.000896575
Loop time of 0.508029 on 1 procs for 5000 steps with 10 atoms
